Version 4
SHEET 1 3348 2128
WIRE -448 -160 -448 -176
WIRE 144 -80 48 -80
WIRE 272 -80 144 -80
WIRE -448 -64 -448 -80
WIRE 272 -32 272 -80
WIRE -448 32 -448 16
WIRE 272 80 272 48
WIRE 144 96 144 -80
WIRE -448 128 -448 112
WIRE 48 176 48 -80
WIRE 144 224 144 160
WIRE 272 224 272 160
WIRE 272 224 144 224
WIRE 320 224 272 224
WIRE 528 224 400 224
WIRE 656 224 608 224
WIRE 1536 224 1376 224
WIRE 656 256 656 224
WIRE 1376 256 1376 224
WIRE 1536 256 1536 224
WIRE 48 272 48 256
WIRE 272 272 272 224
WIRE 144 304 144 224
WIRE 656 368 656 320
WIRE 1376 368 1376 336
WIRE 1536 368 1536 336
WIRE 272 416 272 352
WIRE 144 512 144 368
WIRE 272 512 272 496
WIRE 1984 544 1888 544
WIRE 1152 560 1056 560
WIRE 1552 560 1456 560
WIRE 1888 576 1888 544
WIRE 1056 592 1056 560
WIRE 1456 592 1456 560
WIRE 1984 592 1984 544
WIRE 1152 608 1152 560
WIRE 1552 608 1552 560
WIRE 144 640 48 640
WIRE 272 640 144 640
WIRE 272 688 272 640
WIRE 1984 688 1984 672
WIRE 1152 704 1152 688
WIRE 1552 704 1552 688
WIRE 1888 736 1888 640
WIRE 2064 736 1888 736
WIRE 1056 752 1056 656
WIRE 1232 752 1056 752
WIRE 1456 752 1456 656
WIRE 1632 752 1456 752
WIRE 1888 784 1888 736
WIRE 272 800 272 768
WIRE 1056 800 1056 752
WIRE 1456 800 1456 752
WIRE 2064 800 2064 736
WIRE 144 816 144 640
WIRE 1232 816 1232 752
WIRE 1632 816 1632 752
WIRE 1808 880 1776 880
WIRE 48 896 48 640
WIRE 976 896 816 896
WIRE 1376 896 1328 896
WIRE 144 944 144 880
WIRE 272 944 272 880
WIRE 272 944 144 944
WIRE 320 944 272 944
WIRE 1888 944 1888 912
WIRE 2064 944 2064 880
WIRE 1056 960 1056 928
WIRE 1232 960 1232 896
WIRE 1456 960 1456 928
WIRE 1632 960 1632 896
WIRE 1776 976 1776 960
WIRE 48 992 48 976
WIRE 272 992 272 944
WIRE 816 992 816 976
WIRE 1328 992 1328 976
WIRE 144 1024 144 944
WIRE 1968 1056 1872 1056
WIRE 1584 1072 1488 1072
WIRE 1152 1088 1056 1088
WIRE 1872 1088 1872 1056
WIRE 1488 1104 1488 1072
WIRE 1968 1104 1968 1056
WIRE 1056 1120 1056 1088
WIRE 1584 1120 1584 1072
WIRE 272 1136 272 1072
WIRE 1152 1136 1152 1088
WIRE 1968 1200 1968 1184
WIRE 1584 1216 1584 1200
WIRE 144 1232 144 1088
WIRE 272 1232 272 1216
WIRE 1152 1232 1152 1216
WIRE 1872 1248 1872 1152
WIRE 2048 1248 1872 1248
WIRE 1488 1264 1488 1168
WIRE 1664 1264 1488 1264
WIRE 1056 1280 1056 1184
WIRE 1232 1280 1056 1280
WIRE 1872 1296 1872 1248
WIRE 1488 1312 1488 1264
WIRE 2048 1312 2048 1248
WIRE 1056 1328 1056 1280
WIRE 1664 1328 1664 1264
WIRE 1232 1344 1232 1280
WIRE 1792 1392 1776 1392
WIRE 1408 1408 1376 1408
WIRE 976 1424 944 1424
WIRE 1872 1456 1872 1424
WIRE 2048 1456 2048 1392
WIRE 1488 1472 1488 1440
WIRE 1664 1472 1664 1408
WIRE 1056 1488 1056 1456
WIRE 1232 1488 1232 1424
WIRE 1776 1488 1776 1472
WIRE 1376 1504 1376 1488
WIRE 944 1520 944 1504
WIRE 1152 1616 1056 1616
WIRE 1056 1648 1056 1616
WIRE 1152 1664 1152 1616
WIRE 1152 1760 1152 1744
WIRE 1056 1808 1056 1712
WIRE 1232 1808 1056 1808
WIRE 1056 1856 1056 1808
WIRE 1232 1872 1232 1808
WIRE 976 1952 944 1952
WIRE 1056 2016 1056 1984
WIRE 1232 2016 1232 1952
WIRE 944 2048 944 2032
FLAG 48 272 0
FLAG 656 368 0
FLAG 272 512 0
FLAG 224 480 0
FLAG 224 144 0
FLAG -448 -64 0
FLAG -448 -176 q1
FLAG -448 128 0
FLAG -448 16 q2
FLAG 224 96 q1
FLAG 224 432 q2
FLAG 1376 368 0
FLAG 1536 368 0
FLAG 1376 224 Q
FLAG 144 512 0
FLAG 1056 960 0
FLAG 1232 960 0
FLAG 1152 704 0
FLAG 1456 960 0
FLAG 1632 960 0
FLAG 1552 704 0
FLAG 1888 944 0
FLAG 2064 944 0
FLAG 1984 688 0
FLAG 1056 1488 0
FLAG 1232 1488 0
FLAG 1152 1232 0
FLAG 1488 1472 0
FLAG 1664 1472 0
FLAG 1584 1216 0
FLAG 1872 1456 0
FLAG 2048 1456 0
FLAG 1968 1200 0
FLAG 1056 2016 0
FLAG 1232 2016 0
FLAG 1152 1760 0
FLAG 48 992 0
FLAG 272 1232 0
FLAG 224 1200 0
FLAG 224 864 0
FLAG 224 816 q1
FLAG 224 1152 q2
FLAG 144 1232 0
FLAG 816 992 0
FLAG 1328 992 0
FLAG 1776 976 0
FLAG 1776 1488 0
FLAG 1376 1504 0
FLAG 944 1520 0
FLAG 944 2048 0
SYMBOL voltage 48 160 R0
WINDOW 123 0 0 Left 0
WINDOW 39 0 0 Left 0
SYMATTR InstName V1
SYMATTR Value 5
SYMBOL sw 272 176 M180
SYMATTR InstName S1
SYMATTR Value SW1
SYMBOL sw 272 512 M180
SYMATTR InstName S2
SYMATTR Value SW2
SYMBOL res 624 208 R90
WINDOW 0 0 56 VBottom 2
WINDOW 3 32 56 VTop 2
SYMATTR InstName R2
SYMATTR Value 50m
SYMBOL cap 640 256 R0
SYMATTR InstName C1
SYMATTR Value 150p
SYMBOL voltage -448 -176 R0
WINDOW 123 0 0 Left 0
WINDOW 39 0 0 Left 0
SYMATTR InstName V2
SYMATTR Value PULSE(0 5 0 0.1n 0.1n {0.45/f} {1/f})
SYMBOL voltage -448 16 R0
WINDOW 123 0 0 Left 0
WINDOW 39 0 0 Left 0
SYMATTR InstName V3
SYMATTR Value PULSE(0 5 {0.5/f} 0.1n 0.1n {0.45/f} {1/f})
SYMBOL res 1520 240 R0
SYMATTR InstName R3
SYMATTR Value 1k
SYMBOL bv 1376 240 R0
SYMATTR InstName B1
SYMATTR Value V=sdt(I(C1))
SYMBOL cap 128 96 R0
SYMATTR InstName C2
SYMATTR Value 11p
SYMBOL cap 128 304 R0
SYMATTR InstName C3
SYMATTR Value 11p
SYMBOL res 416 208 R90
WINDOW 0 0 56 VBottom 2
WINDOW 3 32 56 VTop 2
SYMATTR InstName R1
SYMATTR Value 3m
SYMBOL res 256 -48 R0
SYMATTR InstName R4
SYMATTR Value {Rpullup}
SYMBOL res 256 256 R0
SYMATTR InstName R5
SYMATTR Value {Rpulldown}
SYMBOL EPCGaN 976 896 R0
WINDOW 0 97 -83 Left 2
WINDOW 3 125 -29 Left 2
SYMATTR InstName U1
SYMATTR Value EPC8004
SYMBOL current 1232 896 R180
WINDOW 0 24 80 Left 2
WINDOW 3 24 0 Left 2
WINDOW 123 0 0 Left 0
WINDOW 39 0 0 Left 0
SYMATTR InstName I1
SYMATTR Value 4
SYMBOL voltage 1152 592 R0
SYMATTR InstName V4
SYMATTR Value 40
SYMBOL schottky 1072 656 R180
WINDOW 0 24 64 Left 2
WINDOW 3 24 0 Left 2
SYMATTR InstName D1
SYMATTR Value RB215T-60
SYMATTR Description Diode
SYMATTR Type diode
SYMBOL EPCGaN 1376 896 R0
WINDOW 0 97 -83 Left 2
WINDOW 3 125 -29 Left 2
SYMATTR InstName U2
SYMATTR Value EPC2014C
SYMBOL current 1632 896 R180
WINDOW 0 24 80 Left 2
WINDOW 3 24 0 Left 2
WINDOW 123 0 0 Left 0
WINDOW 39 0 0 Left 0
SYMATTR InstName I2
SYMATTR Value 4
SYMBOL voltage 1552 592 R0
SYMATTR InstName V5
SYMATTR Value 40
SYMBOL schottky 1472 656 R180
WINDOW 0 24 64 Left 2
WINDOW 3 24 0 Left 2
SYMATTR InstName D2
SYMATTR Value RB215T-60
SYMATTR Description Diode
SYMATTR Type diode
SYMBOL EPCGaN 1808 880 R0
WINDOW 0 97 -83 Left 2
WINDOW 3 125 -29 Left 2
SYMATTR InstName U3
SYMATTR Value EPC2070
SYMBOL current 2064 880 R180
WINDOW 0 24 80 Left 2
WINDOW 3 24 0 Left 2
WINDOW 123 0 0 Left 0
WINDOW 39 0 0 Left 0
SYMATTR InstName I3
SYMATTR Value 4
SYMBOL voltage 1984 576 R0
SYMATTR InstName V6
SYMATTR Value 40
SYMBOL schottky 1904 640 R180
WINDOW 0 24 64 Left 2
WINDOW 3 24 0 Left 2
SYMATTR InstName D3
SYMATTR Value RB215T-60
SYMATTR Description Diode
SYMATTR Type diode
SYMBOL EPCGaN 976 1424 R0
WINDOW 0 97 -83 Left 2
WINDOW 3 125 -29 Left 2
SYMATTR InstName U4
SYMATTR Value EPC2007C
SYMBOL current 1232 1424 R180
WINDOW 0 24 80 Left 2
WINDOW 3 24 0 Left 2
WINDOW 123 0 0 Left 0
WINDOW 39 0 0 Left 0
SYMATTR InstName I4
SYMATTR Value 4
SYMBOL voltage 1152 1120 R0
SYMATTR InstName V7
SYMATTR Value 40
SYMBOL schottky 1072 1184 R180
WINDOW 0 24 64 Left 2
WINDOW 3 24 0 Left 2
SYMATTR InstName D4
SYMATTR Value RB215T-60
SYMATTR Description Diode
SYMATTR Type diode
SYMBOL EPCGaN 1408 1408 R0
WINDOW 0 97 -83 Left 2
WINDOW 3 125 -29 Left 2
SYMATTR InstName U5
SYMATTR Value EPC2214
SYMBOL current 1664 1408 R180
WINDOW 0 24 80 Left 2
WINDOW 3 24 0 Left 2
WINDOW 123 0 0 Left 0
WINDOW 39 0 0 Left 0
SYMATTR InstName I5
SYMATTR Value 4
SYMBOL voltage 1584 1104 R0
SYMATTR InstName V8
SYMATTR Value 40
SYMBOL schottky 1504 1168 R180
WINDOW 0 24 64 Left 2
WINDOW 3 24 0 Left 2
SYMATTR InstName D5
SYMATTR Value RB215T-60
SYMATTR Description Diode
SYMATTR Type diode
SYMBOL EPCGaN 1792 1392 R0
WINDOW 0 97 -83 Left 2
WINDOW 3 125 -29 Left 2
SYMATTR InstName U6
SYMATTR Value EPC2035
SYMBOL current 2048 1392 R180
WINDOW 0 24 80 Left 2
WINDOW 3 24 0 Left 2
WINDOW 123 0 0 Left 0
WINDOW 39 0 0 Left 0
SYMATTR InstName I6
SYMATTR Value 4
SYMBOL voltage 1968 1088 R0
SYMATTR InstName V9
SYMATTR Value 40
SYMBOL schottky 1888 1152 R180
WINDOW 0 24 64 Left 2
WINDOW 3 24 0 Left 2
SYMATTR InstName D6
SYMATTR Value RB215T-60
SYMATTR Description Diode
SYMATTR Type diode
SYMBOL EPCGaN 976 1952 R0
WINDOW 0 97 -83 Left 2
WINDOW 3 125 -29 Left 2
SYMATTR InstName U7
SYMATTR Value EPC2051
SYMBOL current 1232 1952 R180
WINDOW 0 24 80 Left 2
WINDOW 3 24 0 Left 2
WINDOW 123 0 0 Left 0
WINDOW 39 0 0 Left 0
SYMATTR InstName I7
SYMATTR Value 4
SYMBOL voltage 1152 1648 R0
SYMATTR InstName V10
SYMATTR Value 40
SYMBOL schottky 1072 1712 R180
WINDOW 0 24 64 Left 2
WINDOW 3 24 0 Left 2
SYMATTR InstName D7
SYMATTR Value RB215T-60
SYMATTR Description Diode
SYMATTR Type diode
SYMBOL voltage 48 880 R0
WINDOW 123 0 0 Left 0
WINDOW 39 0 0 Left 0
SYMATTR InstName V11
SYMATTR Value 5
SYMBOL sw 272 896 M180
SYMATTR InstName S3
SYMATTR Value SW1
SYMBOL sw 272 1232 M180
SYMATTR InstName S4
SYMATTR Value SW2
SYMBOL cap 128 816 R0
SYMATTR InstName C4
SYMATTR Value 11p
SYMBOL cap 128 1024 R0
SYMATTR InstName C5
SYMATTR Value 11p
SYMBOL res 416 928 R90
WINDOW 0 0 56 VBottom 2
WINDOW 3 32 56 VTop 2
SYMATTR InstName R6
SYMATTR Value 3m
SYMBOL res 256 672 R0
SYMATTR InstName R7
SYMATTR Value {Rpullup}
SYMBOL res 256 976 R0
SYMATTR InstName R8
SYMATTR Value {Rpulldown}
SYMBOL voltage 816 880 R0
WINDOW 123 0 0 Left 0
WINDOW 39 0 0 Left 0
SYMATTR InstName V12
SYMATTR Value PULSE(0 5 0 10p 10p {0.5/f} {1/f})
SYMBOL voltage 1328 880 R0
WINDOW 0 26 -7 Left 2
WINDOW 123 0 0 Left 0
WINDOW 39 0 0 Left 0
SYMATTR InstName V13
SYMATTR Value PULSE(0 5 0 10p 10p {0.5/f} {1/f})
SYMBOL voltage 1776 864 R0
WINDOW 0 -8 -11 Left 2
WINDOW 123 0 0 Left 0
WINDOW 39 0 0 Left 0
SYMATTR InstName V14
SYMATTR Value PULSE(0 5 0 10p 10p {0.5/f} {1/f})
SYMBOL voltage 1776 1376 R0
WINDOW 0 35 43 Left 2
WINDOW 123 0 0 Left 0
WINDOW 39 0 0 Left 0
SYMATTR InstName V15
SYMATTR Value PULSE(0 5 0 10p 10p {0.5/f} {1/f})
SYMBOL voltage 1376 1392 R0
WINDOW 0 41 54 Left 2
WINDOW 123 0 0 Left 0
WINDOW 39 0 0 Left 0
SYMATTR InstName V16
SYMATTR Value PULSE(0 5 0 10p 10p {0.5/f} {1/f})
SYMBOL voltage 944 1408 R0
WINDOW 123 0 0 Left 0
WINDOW 39 0 0 Left 0
SYMATTR InstName V17
SYMATTR Value PULSE(0 5 0 10p 10p {0.5/f} {1/f})
SYMBOL voltage 944 1936 R0
WINDOW 0 -86 5 Left 2
WINDOW 123 0 0 Left 0
WINDOW 39 0 0 Left 0
SYMATTR InstName V18
SYMATTR Value PULSE(0 5 0 10p 10p {0.5/f} {1/f})
TEXT 56 -352 Left 2 !.param\n \n+f = 50Meg\n+Rpullup = 1\n+Rpulldown = 1\n \n.model SW1 SW(Ron = 1m Roff = 1Meg Vt = 0.1)\n.model SW2 SW(Ron = 1m Roff = 1Meg Vt = 0.1)
TEXT -480 408 Left 2 !.tran 0 {50/f} {45/f} {1/f/200}
TEXT 1080 984 Left 2 ;Rth = 8.2\nCiss = \nCoss =
TEXT 1472 992 Left 2 ;Rth = 3.6\nCiss = 300 pF\nCoss = 210 pF
TEXT 1912 976 Left 2 ;Rth = 3.4\nCiss = 386 pF\nCoss = 123 pF
TEXT 1072 1520 Left 2 ;Rth = 3.6\nCiss = 220 pF\nCoss = 165 pF
TEXT 1512 1512 Left 2 ;Rth = 2.7\nCiss = 238 pF\nCoss = 194 pF
TEXT 1904 1512 Left 2 ;Rth = 6.5\nCiss = 115 pF\nCOss = 90 pF
TEXT 1072 2056 Left 2 ;Rth = 3.8\nCiss = 297 pF\nCoss = 129 pF
TEXT 2392 920 Left 2 ;Top choices:\n \n2051\n2014C\n2070\n \nMaybe 2035?
